Casos/pglib_opf_case200_activ/datosLineas.csv
fbus;tbus;r;x;b;rateA;rateB;rateC;ratio;angle;status;angmin;angmax;
2;1;0.000673;0.003339;0.0;100.0;100.0;100.0;0.0;0.0;1;-30.0;30.0;
1;119;0.018542;0.119758;0.02285;221.1;221.1;221.1;0.0;0.0;1;-30.0;30.0;
124;1;0.005615;0.036268;0.00692;221.1;221.1;221.1;0.0;0.0;1;-30.0;30.0;
193;1;0.004258;0.027501;0.00525;221.1;221.1;221.1;0.0;0.0;1;-30.0;30.0;
4;3;0.000573;0.003303;0.0;100.0;100.0;100.0;0.0;0.0;1;-30.0;30.0;
57;3;0.008505;0.058098;0.00988;221.1;221.1;221.1;0.0;0.0;1;-30.0;30.0;
3;137;0.005889;0.038035;0.00726;221.1;221.1;221.1;0.0;0.0;1;-30.0;30.0;
6;5;0.000694;0.003337;0.0;100.0;100.0;100.0;0.0;0.0;1;-30.0;30.0;
48;5;0.006246;0.043513;0.00711;221.1;221.1;221.1;0.0;0.0;1;-30.0;30.0;
5;64;0.007877;0.054875;0.00897;221.1;221.1;221.1;0.0;0.0;1;-30.0;30.0;
8;7;0.000634;0.003189;0.0;100.0;100.0;100.0;0.0;0.0;1;-30.0;30.0;
7;86;0.003756;0.024259;0.00463;221.1;221.1;221.1;0.0;0.0;1;-30.0;30.0;
7;101;0.003597;0.023232;0.00443;221.1;221.1;221.1;0.0;0.0;1;-30.0;30.0;
7;148;0.008667;0.05598;0.01068;221.1;221.1;221.1;0.0;0.0;1;-30.0;30.0;
10;9;0.000585;0.003967;0.0;100.0;100.0;100.0;0.0;0.0;1;-30.0;30.0;
9;124;0.008069;0.055123;0.00938;221.1;221.1;221.1;0.0;0.0;1;-30.0;30.0;
131;9;0.004139;0.026732;0.0051;221.1;221.1;221.1;0.0;0.0;1;-30.0;30.0;
9;141;0.004446;0.03097;0.00506;221.1;221.1;221.1;0.0;0.0;1;-30.0;30.0;
9;193;0.003695;0.025244;0.00429;221.1;221.1;221.1;0.0;0.0;1;-30.0;30.0;
12;11;0.000534;0.003533;0.0;100.0;100.0;100.0;0.0;0.0;1;-30.0;30.0;
13;11;0.000619;0.003606;0.0;100.0;100.0;100.0;0.0;0.0;1;-30.0;30.0;
11;15;0.010408;0.06722;0.01282;221.1;221.1;221.1;0.0;0.0;1;-30.0;30.0;
11;93;0.018394;0.128141;0.02095;221.1;221.1;221.1;0.0;0.0;1;-30.0;30.0;
158;11;0.008519;0.058199;0.0099;221.1;221.1;221.1;0.0;0.0;1;-30.0;30.0;
15;14;0.000637;0.027526;0.0;300.0;300.0;300.0;1.0;0.0;1;-30.0;30.0;
14;121;0.007013;0.050098;0.09134;402.36;402.36;402.36;0.0;0.0;1;-30.0;30.0;
14;149;0.009133;0.065244;0.11895;402.36;402.36;402.36;0.0;0.0;1;-30.0;30.0;
16;15;0.000553;0.0032;0.0;100.0;100.0;100.0;0.0;0.0;1;-30.0;30.0;
18;17;0.000503;0.003926;0.0;100.0;100.0;100.0;0.0;0.0;1;-30.0;30.0;
19;17;0.000514;0.003079;0.0;100.0;100.0;100.0;0.0;0.0;1;-30.0;30.0;
20;17;0.000623;0.003339;0.0;100.0;100.0;100.0;0.0;0.0;1;-30.0;30.0;
21;17;0.00062;0.00394;0.0;100.0;100.0;100.0;0.0;0.0;1;-30.0;30.0;
109;17;0.009789;0.068198;0.01115;221.1;221.1;221.1;0.0;0.0;1;-30.0;30.0;
17;120;0.010316;0.070473;0.01199;221.1;221.1;221.1;0.0;0.0;1;-30.0;30.0;
23;22;0.000616;0.003222;0.0;100.0;100.0;100.0;0.0;0.0;1;-30.0;30.0;
24;22;0.000687;0.003067;0.0;100.0;100.0;100.0;0.0;0.0;1;-30.0;30.0;
22;27;0.011379;0.073494;0.01402;221.1;221.1;221.1;0.0;0.0;1;-30.0;30.0;
158;22;0.012701;0.086769;0.01476;221.1;221.1;221.1;0.0;0.0;1;-30.0;30.0;
26;25;0.00061;0.003071;0.0;100.0;100.0;100.0;0.0;0.0;1;-30.0;30.0;
25;64;0.007643;0.053244;0.0087;221.1;221.1;221.1;0.0;0.0;1;-30.0;30.0;
199;25;0.009909;0.064003;0.01221;221.1;221.1;221.1;0.0;0.0;1;-30.0;30.0;
28;27;0.000587;0.003964;0.0;100.0;100.0;100.0;0.0;0.0;1;-30.0;30.0;
27;93;0.025172;0.175362;0.02867;221.1;221.1;221.1;0.0;0.0;1;-30.0;30.0;
27;158;0.020429;0.131945;0.02517;221.1;221.1;221.1;0.0;0.0;1;-30.0;30.0;
30;29;0.000694;0.003131;0.0;100.0;100.0;100.0;0.0;0.0;1;-30.0;30.0;
124;29;0.005561;0.038742;0.00633;221.1;221.1;221.1;0.0;0.0;1;-30.0;30.0;
29;140;0.007895;0.055004;0.00899;221.1;221.1;221.1;0.0;0.0;1;-30.0;30.0;
32;31;0.000667;0.003884;0.0;100.0;100.0;100.0;0.0;0.0;1;-30.0;30.0;
33;31;0.000528;0.003639;0.0;100.0;100.0;100.0;0.0;0.0;1;-30.0;30.0;
177;31;0.008406;0.05856;0.00957;221.1;221.1;221.1;0.0;0.0;1;-30.0;30.0;
192;31;0.008088;0.05525;0.0094;221.1;221.1;221.1;0.0;0.0;1;-30.0;30.0;
35;34;0.000575;0.003674;0.0;100.0;100.0;100.0;0.0;0.0;1;-30.0;30.0;
34;54;0.006268;0.042819;0.00729;221.1;221.1;221.1;0.0;0.0;1;-30.0;30.0;
34;137;0.006911;0.044639;0.00852;221.1;221.1;221.1;0.0;0.0;1;-30.0;30.0;
37;36;0.000552;0.003328;0.0;100.0;100.0;100.0;0.0;0.0;1;-30.0;30.0;
38;36;0.00067;0.003511;0.0;100.0;100.0;100.0;0.0;0.0;1;-30.0;30.0;
58;36;0.010889;0.07439;0.01266;221.1;221.1;221.1;0.0;0.0;1;-30.0;30.0;
83;36;0.009615;0.066986;0.01095;221.1;221.1;221.1;0.0;0.0;1;-30.0;30.0;
40;39;0.000505;0.003103;0.0;100.0;100.0;100.0;0.0;0.0;1;-30.0;30.0;
39;85;0.008702;0.060625;0.00991;221.1;221.1;221.1;0.0;0.0;1;-30.0;30.0;
159;39;0.007332;0.05108;0.00835;221.1;221.1;221.1;0.0;0.0;1;-30.0;30.0;
41;100;0.004595;0.029676;0.00566;221.1;221.1;221.1;0.0;0.0;1;-30.0;30.0;
41;163;0.003165;0.021623;0.00368;221.1;221.1;221.1;0.0;0.0;1;-30.0;30.0;
41;180;0.009408;0.060766;0.01159;221.1;221.1;221.1;0.0;0.0;1;-30.0;30.0;
44;42;0.012256;0.085383;0.01396;221.1;221.1;221.1;0.0;0.0;1;-30.0;30.0;
181;42;0.008008;0.05579;0.00912;221.1;221.1;221.1;0.0;0.0;1;-30.0;30.0;
43;84;0.007509;0.051295;0.00873;221.1;221.1;221.1;0.0;0.0;1;-30.0;30.0;
43;132;0.011052;0.075503;0.01285;221.1;221.1;221.1;0.0;0.0;1;-30.0;30.0;
44;200;0.014813;0.101195;0.01722;221.1;221.1;221.1;0.0;0.0;1;-30.0;30.0;
46;45;0.000936;0.049195;0.0;160.0;160.0;160.0;1.0;0.0;1;-30.0;30.0;
55;45;0.002593;0.018527;0.03378;402.36;402.36;402.36;0.0;0.0;1;-30.0;30.0;
102;45;0.0029;0.020715;0.03777;402.36;402.36;402.36;0.0;0.0;1;-30.0;30.0;
45;187;0.003474;0.024821;0.04525;402.36;402.36;402.36;0.0;0.0;1;-30.0;30.0;
61;46;0.006971;0.048561;0.00794;221.1;221.1;221.1;0.0;0.0;1;-30.0;30.0;
122;46;0.010129;0.065419;0.01248;221.1;221.1;221.1;0.0;0.0;1;-30.0;30.0;
47;54;0.006678;0.045623;0.00776;221.1;221.1;221.1;0.0;0.0;1;-30.0;30.0;
47;66;0.007339;0.047401;0.00904;221.1;221.1;221.1;0.0;0.0;1;-30.0;30.0;
49;48;0.027149;0.532021;0.0;28.9;28.9;28.9;1.0;0.0;1;-30.0;30.0;
50;48;0.021719;0.404167;0.0;28.7;28.7;28.7;1.0;0.0;1;-30.0;30.0;
51;48;0.027149;0.612711;0.0;24.3;24.3;24.3;1.0;0.0;1;-30.0;30.0;
52;48;0.021719;0.379817;0.0;24.3;24.3;24.3;1.0;0.0;1;-30.0;30.0;
53;48;0.02121;0.576549;0.0;35.3;35.3;35.3;1.0;0.0;1;-30.0;30.0;
48;74;0.007959;0.054369;0.00925;221.1;221.1;221.1;0.0;0.0;1;-30.0;30.0;
54;66;0.007051;0.045544;0.00869;221.1;221.1;221.1;0.0;0.0;1;-30.0;30.0;
56;55;0.005152;0.124653;0.0;160.0;160.0;160.0;1.0;0.0;1;-30.0;30.0;
81;55;0.005467;0.039054;0.0712;402.36;402.36;402.36;0.0;0.0;1;-30.0;30.0;
55;102;0.001246;0.008902;0.01623;402.36;402.36;402.36;0.0;0.0;1;-30.0;30.0;
55;112;0.004166;0.029763;0.05426;402.36;402.36;402.36;0.0;0.0;1;-30.0;30.0;
55;128;0.003415;0.024395;0.04448;402.36;402.36;402.36;0.0;0.0;1;-30.0;30.0;
56;103;0.004282;0.02983;0.00488;221.1;221.1;221.1;0.0;0.0;1;-30.0;30.0;
57;159;0.00752;0.051369;0.00874;221.1;221.1;221.1;0.0;0.0;1;-30.0;30.0;
95;58;0.009836;0.063526;0.01212;221.1;221.1;221.1;0.0;0.0;1;-30.0;30.0;
177;58;0.014049;0.095972;0.01633;221.1;221.1;221.1;0.0;0.0;1;-30.0;30.0;
59;119;0.011209;0.072397;0.01381;221.1;221.1;221.1;0.0;0.0;1;-30.0;30.0;
59;139;0.009665;0.062426;0.01191;221.1;221.1;221.1;0.0;0.0;1;-30.0;30.0;
60;97;0.012274;0.079279;0.01512;221.1;221.1;221.1;0.0;0.0;1;-30.0;30.0;
134;60;0.009007;0.062749;0.01026;221.1;221.1;221.1;0.0;0.0;1;-30.0;30.0;
61;103;0.006539;0.045556;0.00745;221.1;221.1;221.1;0.0;0.0;1;-30.0;30.0;
159;62;0.008634;0.058979;0.01003;221.1;221.1;221.1;0.0;0.0;1;-30.0;30.0;
160;62;0.007628;0.053144;0.00869;221.1;221.1;221.1;0.0;0.0;1;-30.0;30.0;
63;66;0.011949;0.083244;0.01361;221.1;221.1;221.1;0.0;0.0;1;-30.0;30.0;
63;184;0.017963;0.116023;0.02214;221.1;221.1;221.1;0.0;0.0;1;-30.0;30.0;
65;64;0.00128;0.10157;0.0;195.5;195.5;195.5;1.0;0.0;1;-30.0;30.0;
67;66;0.020951;0.144786;0.0;30.0;30.0;30.0;1.0;0.0;1;-30.0;30.0;
68;66;0.00689;0.264997;0.0;73.0;73.0;73.0;1.0;0.0;1;-30.0;30.0;
69;66;0.00441;0.09499;0.0;70.5;70.5;70.5;1.0;0.0;1;-30.0;30.0;
70;66;0.00689;0.199449;0.0;70.5;70.5;70.5;1.0;0.0;1;-30.0;30.0;
71;66;0.003528;0.081544;0.0;68.0;68.0;68.0;1.0;0.0;1;-30.0;30.0;
72;66;0.003528;0.074599;0.0;68.0;68.0;68.0;1.0;0.0;1;-30.0;30.0;
73;66;0.00689;0.146423;0.0;65.0;65.0;65.0;1.0;0.0;1;-30.0;30.0;
66;158;0.004993;0.032251;0.00615;221.1;221.1;221.1;0.0;0.0;1;-30.0;30.0;
74;190;0.008894;0.06076;0.01034;221.1;221.1;221.1;0.0;0.0;1;-30.0;30.0;
76;75;0.038464;0.784328;0.0;24.3;24.3;24.3;1.0;0.0;1;-30.0;30.0;
77;75;0.08013;2.192105;0.0;7.4;7.4;7.4;1.0;0.0;1;-30.0;30.0;
78;75;0.008544;0.181406;0.0;65.0;65.0;65.0;1.0;0.0;1;-30.0;30.0;
79;75;0.01068;0.277774;0.0;62.1;62.1;62.1;1.0;0.0;1;-30.0;30.0;
108;75;0.010988;0.070969;0.01354;221.1;221.1;221.1;0.0;0.0;1;-30.0;30.0;
75;157;0.013487;0.087112;0.01662;221.1;221.1;221.1;0.0;0.0;1;-30.0;30.0;
80;100;0.021463;0.149525;0.02444;221.1;221.1;221.1;0.0;0.0;1;-30.0;30.0;
80;143;0.020594;0.14347;0.02345;221.1;221.1;221.1;0.0;0.0;1;-30.0;30.0;
82;81;0.00097;0.042371;0.0;250.0;250.0;250.0;1.0;0.0;1;-30.0;30.0;
81;178;0.006598;0.047137;0.08594;402.36;402.36;402.36;0.0;0.0;1;-30.0;30.0;
82;195;0.003845;0.026265;0.00447;221.1;221.1;221.1;0.0;0.0;1;-30.0;30.0;
83;146;0.005382;0.036767;0.00626;221.1;221.1;221.1;0.0;0.0;1;-30.0;30.0;
83;186;0.00792;0.055174;0.00902;221.1;221.1;221.1;0.0;0.0;1;-30.0;30.0;
84;113;0.006652;0.04544;0.00773;221.1;221.1;221.1;0.0;0.0;1;-30.0;30.0;
85;120;0.007786;0.050291;0.00959;221.1;221.1;221.1;0.0;0.0;1;-30.0;30.0;
86;101;0.00512;0.033072;0.00631;221.1;221.1;221.1;0.0;0.0;1;-30.0;30.0;
142;86;0.003387;0.023141;0.00394;221.1;221.1;221.1;0.0;0.0;1;-30.0;30.0;
86;193;0.006606;0.042664;0.00814;221.1;221.1;221.1;0.0;0.0;1;-30.0;30.0;
88;87;0.000832;0.034189;0.0;350.0;350.0;350.0;1.0;0.0;1;-30.0;30.0;
149;87;0.001621;0.011579;0.02111;402.36;402.36;402.36;0.0;0.0;1;-30.0;30.0;
88;150;0.00557;0.035973;0.00686;221.1;221.1;221.1;0.0;0.0;1;-30.0;30.0;
176;88;0.003859;0.024922;0.00475;221.1;221.1;221.1;0.0;0.0;1;-30.0;30.0;
88;194;0.004258;0.029088;0.00495;221.1;221.1;221.1;0.0;0.0;1;-30.0;30.0;
90;89;0.0601;2.279922;0.0;8.6;8.6;8.6;1.0;0.0;1;-30.0;30.0;
91;89;0.024614;0.503424;0.0;32.0;32.0;32.0;1.0;0.0;1;-30.0;30.0;
92;89;0.019539;0.36204;0.0;35.3;35.3;35.3;1.0;0.0;1;-30.0;30.0;
89;95;0.008734;0.056409;0.01076;221.1;221.1;221.1;0.0;0.0;1;-30.0;30.0;
188;89;0.00805;0.051996;0.00992;221.1;221.1;221.1;0.0;0.0;1;-30.0;30.0;
94;93;0.01068;0.280602;0.0;62.1;62.1;62.1;1.0;0.0;1;-30.0;30.0;
93;191;0.022088;0.142662;0.02722;221.1;221.1;221.1;0.0;0.0;1;-30.0;30.0;
122;96;0.01062;0.073986;0.01209;221.1;221.1;221.1;0.0;0.0;1;-30.0;30.0;
96;143;0.015858;0.102423;0.01954;221.1;221.1;221.1;0.0;0.0;1;-30.0;30.0;
96;188;0.010903;0.070421;0.01343;221.1;221.1;221.1;0.0;0.0;1;-30.0;30.0;
97;200;0.01318;0.085125;0.01624;221.1;221.1;221.1;0.0;0.0;1;-30.0;30.0;
99;98;0.000643;0.030516;0.0;250.0;250.0;250.0;1.0;0.0;1;-30.0;30.0;
98;123;0.0047;0.033574;0.06121;402.36;402.36;402.36;0.0;0.0;1;-30.0;30.0;
99;142;0.007605;0.052982;0.00866;221.1;221.1;221.1;0.0;0.0;1;-30.0;30.0;
100;174;0.010698;0.074531;0.01218;221.1;221.1;221.1;0.0;0.0;1;-30.0;30.0;
100;179;0.007093;0.049413;0.00808;221.1;221.1;221.1;0.0;0.0;1;-30.0;30.0;
100;184;0.012745;0.08879;0.01451;221.1;221.1;221.1;0.0;0.0;1;-30.0;30.0;
110;101;0.00196;0.012657;0.00241;221.1;221.1;221.1;0.0;0.0;1;-30.0;30.0;
101;117;0.005245;0.035833;0.0061;221.1;221.1;221.1;0.0;0.0;1;-30.0;30.0;
101;141;0.003144;0.020305;0.00387;221.1;221.1;221.1;0.0;0.0;1;-30.0;30.0;
103;102;0.001709;0.054578;0.0;250.0;250.0;250.0;1.0;0.0;1;-30.0;30.0;
104;102;0.0021;0.087749;0.0;130.0;130.0;130.0;1.0;0.0;1;-30.0;30.0;
105;102;0.00097;0.059419;0.0;260.0;260.0;260.0;1.0;0.0;1;-30.0;30.0;
102;128;0.0027;0.019292;0.03517;402.36;402.36;402.36;0.0;0.0;1;-30.0;30.0;
103;106;0.007749;0.053987;0.00883;221.1;221.1;221.1;0.0;0.0;1;-30.0;30.0;
130;106;0.006991;0.047761;0.00813;221.1;221.1;221.1;0.0;0.0;1;-30.0;30.0;
107;113;0.006748;0.046101;0.00784;221.1;221.1;221.1;0.0;0.0;1;-30.0;30.0;
107;129;0.005168;0.035307;0.00601;221.1;221.1;221.1;0.0;0.0;1;-30.0;30.0;
192;107;0.003939;0.025441;0.00485;221.1;221.1;221.1;0.0;0.0;1;-30.0;30.0;
108;198;0.024792;0.160126;0.03055;221.1;221.1;221.1;0.0;0.0;1;-30.0;30.0;
186;109;0.008774;0.059942;0.0102;221.1;221.1;221.1;0.0;0.0;1;-30.0;30.0;
110;193;0.003444;0.022243;0.00424;221.1;221.1;221.1;0.0;0.0;1;-30.0;30.0;
163;111;0.005281;0.034111;0.00651;221.1;221.1;221.1;0.0;0.0;1;-30.0;30.0;
111;175;0.00795;0.055386;0.00905;221.1;221.1;221.1;0.0;0.0;1;-30.0;30.0;
113;112;0.002077;0.058615;0.0;350.0;350.0;350.0;1.0;0.0;1;-30.0;30.0;
114;112;0.06;0.434013;0.0;20.0;20.0;20.0;1.0;0.0;1;-30.0;30.0;
115;112;0.00128;0.062771;0.0;200.0;200.0;200.0;1.0;0.0;1;-30.0;30.0;
128;112;0.001295;0.009255;0.01687;402.36;402.36;402.36;0.0;0.0;1;-30.0;30.0;
113;192;0.005418;0.034995;0.00668;221.1;221.1;221.1;0.0;0.0;1;-30.0;30.0;
117;116;0.000517;0.034943;0.0;300.0;300.0;300.0;1.0;0.0;1;-30.0;30.0;
133;116;0.00389;0.027793;0.05067;402.36;402.36;402.36;0.0;0.0;1;-30.0;30.0;
117;132;0.011912;0.082984;0.01357;221.1;221.1;221.1;0.0;0.0;1;-30.0;30.0;
117;162;0.01617;0.104442;0.01993;221.1;221.1;221.1;0.0;0.0;1;-30.0;30.0;
131;118;0.00718;0.046377;0.00885;221.1;221.1;221.1;0.0;0.0;1;-30.0;30.0;
118;134;0.011598;0.0808;0.01321;221.1;221.1;221.1;0.0;0.0;1;-30.0;30.0;
118;198;0.009487;0.064809;0.01103;221.1;221.1;221.1;0.0;0.0;1;-30.0;30.0;
122;121;0.000786;0.063023;0.0;200.0;200.0;200.0;1.0;0.0;1;-30.0;30.0;
121;178;0.008903;0.063604;0.11596;402.36;402.36;402.36;0.0;0.0;1;-30.0;30.0;
187;121;0.001063;0.007593;0.01384;402.36;402.36;402.36;0.0;0.0;1;-30.0;30.0;
124;123;0.000329;0.017481;0.0;400.0;400.0;400.0;1.0;0.0;1;-30.0;30.0;
125;123;0.00448;0.104562;0.0;170.0;170.0;170.0;1.0;0.0;1;-30.0;30.0;
126;123;0.00148;0.066043;0.0;170.0;170.0;170.0;1.0;0.0;1;-30.0;30.0;
127;123;0.001;0.031691;0.0;170.0;170.0;170.0;1.0;0.0;1;-30.0;30.0;
123;133;0.001459;0.010423;0.019;402.36;402.36;402.36;0.0;0.0;1;-30.0;30.0;
156;123;0.001117;0.007981;0.01455;402.36;402.36;402.36;0.0;0.0;1;-30.0;30.0;
124;193;0.006577;0.04582;0.00749;221.1;221.1;221.1;0.0;0.0;1;-30.0;30.0;
129;128;0.000753;0.044453;0.0;250.0;250.0;250.0;1.0;0.0;1;-30.0;30.0;
128;133;0.009554;0.068257;0.12444;402.36;402.36;402.36;0.0;0.0;1;-30.0;30.0;
130;144;0.022678;0.157988;0.02583;221.1;221.1;221.1;0.0;0.0;1;-30.0;30.0;
134;133;0.0002;0.013328;0.0;400.0;400.0;400.0;1.0;0.0;1;-30.0;30.0;
135;133;0.00043;0.033512;0.0;580.0;580.0;580.0;1.0;0.0;1;-30.0;30.0;
136;133;0.00043;0.027478;0.0;580.0;580.0;580.0;1.0;0.0;1;-30.0;30.0;
156;133;0.001958;0.013985;0.0255;402.36;402.36;402.36;0.0;0.0;1;-30.0;30.0;
134;140;0.010445;0.071357;0.01214;221.1;221.1;221.1;0.0;0.0;1;-30.0;30.0;
134;186;0.014463;0.093412;0.01782;221.1;221.1;221.1;0.0;0.0;1;-30.0;30.0;
138;139;0.026477;0.184455;0.03015;221.1;221.1;221.1;0.0;0.0;1;-30.0;30.0;
138;195;0.008728;0.05637;0.01075;221.1;221.1;221.1;0.0;0.0;1;-30.0;30.0;
141;148;0.01019;0.065817;0.01256;221.1;221.1;221.1;0.0;0.0;1;-30.0;30.0;
141;193;0.002896;0.018702;0.00357;221.1;221.1;221.1;0.0;0.0;1;-30.0;30.0;
162;144;0.006962;0.048504;0.00793;221.1;221.1;221.1;0.0;0.0;1;-30.0;30.0;
145;176;0.008799;0.060111;0.01023;221.1;221.1;221.1;0.0;0.0;1;-30.0;30.0;
185;145;0.010839;0.075509;0.01234;221.1;221.1;221.1;0.0;0.0;1;-30.0;30.0;
147;146;0.0025;0.10181;0.0;130.6;130.6;130.6;1.0;0.0;1;-30.0;30.0;
146;177;0.011064;0.07708;0.0126;221.1;221.1;221.1;0.0;0.0;1;-30.0;30.0;
150;149;0.000412;0.020251;0.0;400.0;400.0;400.0;1.0;0.0;1;-30.0;30.0;
151;149;0.02267;0.625521;0.0;20.0;20.0;20.0;1.0;0.0;1;-30.0;30.0;
152;149;0.00249;0.141687;0.0;100.0;100.0;100.0;1.0;0.0;1;-30.0;30.0;
153;149;0.00549;0.184603;0.0;100.0;100.0;100.0;1.0;0.0;1;-30.0;30.0;
154;149;0.00249;0.10294;0.0;100.0;100.0;100.0;1.0;0.0;1;-30.0;30.0;
155;149;0.00249;0.099835;0.0;100.0;100.0;100.0;1.0;0.0;1;-30.0;30.0;
185;150;0.013458;0.091934;0.01564;221.1;221.1;221.1;0.0;0.0;1;-30.0;30.0;
194;150;0.003138;0.021435;0.00365;221.1;221.1;221.1;0.0;0.0;1;-30.0;30.0;
157;156;0.000592;0.045654;0.0;300.0;300.0;300.0;1.0;0.0;1;-30.0;30.0;
161;160;0.00139;0.080288;0.0;180.2;180.2;180.2;1.0;0.0;1;-30.0;30.0;
160;181;0.004296;0.029345;0.00499;221.1;221.1;221.1;0.0;0.0;1;-30.0;30.0;
164;163;0.008207;0.11301;0.0;58.1;58.1;58.1;1.0;0.0;1;-30.0;30.0;
165;163;0.0074;0.301657;0.0;65.0;65.0;65.0;1.0;0.0;1;-30.0;30.0;
166;163;0.016368;0.382075;0.0;42.0;42.0;42.0;1.0;0.0;1;-30.0;30.0;
167;163;0.010476;0.196499;0.0;42.0;42.0;42.0;1.0;0.0;1;-30.0;30.0;
168;163;0.018;0.490983;0.0;40.0;40.0;40.0;1.0;0.0;1;-30.0;30.0;
169;163;0.016368;0.396417;0.0;40.0;40.0;40.0;1.0;0.0;1;-30.0;30.0;
170;163;0.016368;0.374902;0.0;35.6;35.6;35.6;1.0;0.0;1;-30.0;30.0;
163;179;0.00579;0.039557;0.00673;221.1;221.1;221.1;0.0;0.0;1;-30.0;30.0;
171;190;0.009866;0.0674;0.01147;221.1;221.1;221.1;0.0;0.0;1;-30.0;30.0;
195;171;0.011644;0.081116;0.01326;221.1;221.1;221.1;0.0;0.0;1;-30.0;30.0;
180;172;0.015296;0.106558;0.01742;221.1;221.1;221.1;0.0;0.0;1;-30.0;30.0;
199;172;0.024005;0.155042;0.02958;221.1;221.1;221.1;0.0;0.0;1;-30.0;30.0;
173;174;0.015373;0.099293;0.01894;221.1;221.1;221.1;0.0;0.0;1;-30.0;30.0;
173;175;0.008572;0.055363;0.01056;221.1;221.1;221.1;0.0;0.0;1;-30.0;30.0;
174;188;0.017952;0.12264;0.02087;221.1;221.1;221.1;0.0;0.0;1;-30.0;30.0;
179;178;0.000495;0.036157;0.0;250.0;250.0;250.0;1.0;0.0;1;-30.0;30.0;
180;191;0.026393;0.183866;0.03006;221.1;221.1;221.1;0.0;0.0;1;-30.0;30.0;
180;199;0.012185;0.078698;0.01501;221.1;221.1;221.1;0.0;0.0;1;-30.0;30.0;
182;181;0.01099;0.297746;0.0;60.3;60.3;60.3;1.0;0.0;1;-30.0;30.0;
183;181;0.004627;0.114254;0.0;65.0;65.0;65.0;1.0;0.0;1;-30.0;30.0;
181;194;0.004395;0.028384;0.00542;221.1;221.1;221.1;0.0;0.0;1;-30.0;30.0;
188;187;0.001394;0.044762;0.0;400.0;400.0;400.0;1.0;0.0;1;-30.0;30.0;
189;187;0.0003;0.007815;0.0;740.0;740.0;740.0;1.0;0.0;1;-30.0;30.0;
196;195;0.00285;0.060038;0.0;87.7;87.7;87.7;1.0;0.0;1;-30.0;30.0;
197;195;0.00285;0.191484;0.0;87.7;87.7;87.7;1.0;0.0;1;-30.0;30.0;